8

Ar 10.320065 10.335879 10.316783
Ar 10.391032 10.317429 -1.343762
Ar 10.325914 -1.285212 10.388758
Ar 10.351887 -1.339916 -1.343288
Ar -1.371585 10.348637 10.331000
Ar -1.354049 10.370789 -1.324098
Ar -1.304908 -1.375755 10.341215
Ar -1.358629 -1.372284 -1.365778
8

Ar 10.301433 10.333055 10.295053
Ar 10.443637 10.296158 -1.348822
Ar 10.313129 -1.231727 10.439092
Ar 10.365300 -1.341296 -1.347873
Ar -1.404467 10.358574 10.323483
Ar -1.369787 10.403112 -1.309499
Ar -1.271118 -1.412807 10.343971
Ar -1.378558 -1.406216 -1.392847
8

Ar 10.282809 10.330229 10.273493
Ar 10.496633 10.274897 -1.353878
Ar 10.300350 -1.178256 10.489792
Ar 10.378985 -1.342826 -1.352461
Ar -1.437347 10.368514 10.316129
Ar -1.386084 10.435758 -1.294916
Ar -1.237339 -1.449859 10.347008
Ar -1.398488 -1.440643 -1.419899
